[General]
network = ospftraffic.OSPFNetwork
sim-time-limit = 30s

**.r*.**.channel.delay = 10ms
**.r*.**.channel.datarate = 100Mbps

**.scalar-recording = true
**.vector-recording = true
