[General]
network = ospf.OSPFNetwork
sim-time-limit = 20s
